DEFINED_PHASES=compile configure install prepare test
DEPEND=dev-python/setuptools[python_targets_python2_7(-)?,-python_single_target_python2_7(-)] python_targets_python2_7? ( >=dev-lang/python-2.7.5-r2:2.7 ) >=dev-lang/python-exec-2:=[python_targets_python2_7(-)?,-python_single_target_python2_7(-)] >=dev-python/setuptools-42.0.2[python_targets_python2_7(-)?,-python_single_target_python2_7(-)]
DESCRIPTION=Calculate properties of sea water. Similar to SEAWATER 3.2 for MATLAB
EAPI=5
HOMEPAGE=https://pypi.org/project/seawater/
IUSE=python_targets_python2_7
KEYWORDS=amd64 x86
LICENSE=MIT
RDEPEND=dev-python/numpy[python_targets_python2_7(-)?,-python_single_target_python2_7(-)] python_targets_python2_7? ( >=dev-lang/python-2.7.5-r2:2.7 ) >=dev-lang/python-exec-2:=[python_targets_python2_7(-)?,-python_single_target_python2_7(-)]
REQUIRED_USE=|| ( python_targets_python2_7 )
SLOT=0
SRC_URI=mirror://pypi/s/seawater/seawater-2.0.1.tar.gz
_md5_=350c57fd0e3c962b825323ecf69661b2
